NIGLOBAL = 120
NJGLOBAL = 280
DT = 1800.
#override HMIX_UV_SFC_PROP = 5.0
#override HMIX_FIXED = 20.0
#override HMIX_STRESS = 20.0
! === module MOM_lateral_mixing_coeffs ===
USE_VARIABLE_MIXING = True
THICKNESSDIFFUSE = True
THICKNESSDIFFUSE_FIRST = True
KHTH = 800.0
