NIGLOBAL = 480
NJGLOBAL = 1120
DT = 450.
#override HMIX_UV_SFC_PROP = 5.0
#override HMIX_FIXED = 20.0
#override HMIX_STRESS = 20.0
USE_VARIABLE_MIXING = True
THICKNESSDIFFUSE = True
THICKNESSDIFFUSE_FIRST = True
KHTH = 100.0
