NIGLOBAL = 480
NJGLOBAL = 1120
DT = 450.
#override HMIX_UV_SFC_PROP = 5.0
#override HMIX_FIXED = 20.0
#override HMIX_STRESS = 20.0
USE_VARIABLE_MIXING = True
THICKNESSDIFFUSE = False
#override USE_GL90_IN_SSW = True
KD_GL90 = 100.0
