NIGLOBAL = 240
NJGLOBAL = 560
DT = 900.
#override HMIX_UV_SFC_PROP = 5.0
#override HMIX_FIXED = 20.0
#override HMIX_STRESS = 20.0
! === module MOM_lateral_mixing_coeffs ===
USE_VARIABLE_MIXING = True
THICKNESSDIFFUSE = False
#override USE_GL90_IN_SSW = True
KD_GL90 = 300.0
